LTspice 24.1.9 for Windows
Circuit: C:\Users\Utente\Desktop\LV-MMC-controller\LV-MMC-controller\LTSPICE\lower_upper_arm_2sb\2sb.net
Start Time: Thu May 28 12:28:16 2026
solver = Normal
Maximum thread count: 12
tnom = 27
temp = 27
method = modified trap
Model "n": Oxide thickness thinner than recommended for a level 1 MOSFET.
Model "p": Oxide thickness thinner than recommended for a level 1 MOSFET.
Direct Newton iteration for .op point succeeded.
Total elapsed time: 0.280 seconds.

Files loaded:
C:\Users\Utente\Desktop\LV-MMC-controller\LV-MMC-controller\LTSPICE\lower_upper_arm_2sb\2sb.net
C:\Users\Utente\AppData\Local\LTspice\lib\cmp\standard.mos

