LTspice 24.1.9 for Windows
Circuit: C:\Users\Utente\Desktop\UNI_25_26\BENG\uMMC\uMMC\LTSPICE\H-BRIDGE-SM\H-Bridge-SM.net
Start Time: Mon May 25 13:31:12 2026
solver = Normal
Maximum thread count: 12
tnom = 27
temp = 27
method = modified trap
Model "n": Oxide thickness thinner than recommended for a level 1 MOSFET.
Model "p": Oxide thickness thinner than recommended for a level 1 MOSFET.
Direct Newton iteration for .op point succeeded.
Total elapsed time: 0.193 seconds.

Files loaded:
C:\Users\Utente\Desktop\UNI_25_26\BENG\uMMC\uMMC\LTSPICE\H-BRIDGE-SM\H-Bridge-SM.net
C:\Users\Utente\AppData\Local\LTspice\lib\cmp\standard.mos

