LTspice 24.1.9 for Windows
Circuit: C:\Users\Utente\Desktop\LV-MMC-controller\LV-MMC-controller\LTSPICE\uMMC\uMMC.net
Start Time: Wed May 27 11:23:06 2026
solver = Normal
Maximum thread count: 12
tnom = 27
temp = 27
method = modified trap
Model "n": Oxide thickness thinner than recommended for a level 1 MOSFET.
Model "p": Oxide thickness thinner than recommended for a level 1 MOSFET.
Model "n": Oxide thickness thinner than recommended for a level 1 MOSFET.
Model "p": Oxide thickness thinner than recommended for a level 1 MOSFET.
Model "n": Oxide thickness thinner than recommended for a level 1 MOSFET.
Model "p": Oxide thickness thinner than recommended for a level 1 MOSFET.
Model "n": Oxide thickness thinner than recommended for a level 1 MOSFET.
Model "p": Oxide thickness thinner than recommended for a level 1 MOSFET.
Direct Newton iteration for .op point succeeded.
Total elapsed time: 0.174 seconds.

Files loaded:
C:\Users\Utente\Desktop\LV-MMC-controller\LV-MMC-controller\LTSPICE\uMMC\uMMC.net
C:\Users\Utente\AppData\Local\LTspice\lib\cmp\standard.mos

