LTspice 24.1.9 for Windows
Circuit: C:\Users\Utente\Desktop\UNI_25_26\BENG\uMMC\uMMC\PCB\KiCad9\DAC8734\LTSPICE\divider_network_vmon.net
Start Time: Fri Nov 14 16:15:45 2025
solver = Normal
Maximum thread count: 12
tnom = 27
temp = 27
method = modified trap
Direct Newton iteration for .op point succeeded.
Total elapsed time: 0.160 seconds.

Files loaded:
C:\Users\Utente\Desktop\UNI_25_26\BENG\uMMC\uMMC\PCB\KiCad9\DAC8734\LTSPICE\divider_network_vmon.net

