LTspice 24.1.9 for Windows
Circuit: C:\Users\Utente\Desktop\UNI_25_26\BENG\uMMC\uMMC\PCB\KiCad9\DAC8734\LTSPICE\Draft2.net
Start Time: Wed Feb  4 19:51:32 2026
solver = Normal
Maximum thread count: 12
tnom = 27
temp = 27
method = modified trap
Direct Newton iteration for .op point succeeded.
Total elapsed time: 0.078 seconds.

Files loaded:
C:\Users\Utente\Desktop\UNI_25_26\BENG\uMMC\uMMC\PCB\KiCad9\DAC8734\LTSPICE\Draft2.net

