LTspice 24.1.9 for Windows
Circuit: C:\Users\Utente\Desktop\UNI_25_26\BENG\uMMC\uMMC\PCB\KiCad9\DAC8734\LTSPICE\driving_led_pmos.net
Start Time: Sat Jan 17 13:08:51 2026
solver = Normal
Maximum thread count: 12
tnom = 27
temp = 27
method = modified trap
Direct Newton iteration for .op point succeeded.
Total elapsed time: 0.206 seconds.

Files loaded:
C:\Users\Utente\Desktop\UNI_25_26\BENG\uMMC\uMMC\PCB\KiCad9\DAC8734\LTSPICE\driving_led_pmos.net
C:\Users\Utente\AppData\Local\LTspice\lib\cmp\standard.dio
C:\Users\Utente\AppData\Local\LTspice\lib\cmp\standard.mos

