LTspice 24.1.9 for Windows
Circuit: C:\Users\Utente\Desktop\LV-MMC-controller\LV-MMC-controller\LTSPICE\F-BRIDGE-4-SM_upper_arm\H-Bridge-4-SM.net
Start Time: Wed May 27 20:22:38 2026
solver = Normal
Maximum thread count: 12
tnom = 27
temp = 27
method = modified trap
WARNING: Node nc_01 is floating.
WARNING: Node nc_02 is floating.

Model "n": Oxide thickness thinner than recommended for a level 1 MOSFET.
Model "p": Oxide thickness thinner than recommended for a level 1 MOSFET.
Direct Newton iteration for .op point succeeded.
Total elapsed time: 0.644 seconds.

Files loaded:
C:\Users\Utente\Desktop\LV-MMC-controller\LV-MMC-controller\LTSPICE\F-BRIDGE-4-SM_upper_arm\H-Bridge-4-SM.net
C:\Users\Utente\AppData\Local\LTspice\lib\cmp\standard.mos

