LTspice 24.1.9 for Windows
Circuit: C:\Users\Utente\Desktop\UNI_25_26\BENG\uMMC\uMMC\LTSPICE\H-BRIDGE-ONLY\H-Bridge-only.net
Start Time: Mon May 25 13:31:29 2026
solver = Normal
Maximum thread count: 12
tnom = 27
temp = 27
method = modified trap
WARNING: Node pwm1 is floating.
WARNING: Node vcap is floating.
WARNING: Node pwm2 is floating.

Model "n": Oxide thickness thinner than recommended for a level 1 MOSFET.
Model "p": Oxide thickness thinner than recommended for a level 1 MOSFET.
.OP point found by inspection.
Total elapsed time: 0.241 seconds.

Files loaded:
C:\Users\Utente\Desktop\UNI_25_26\BENG\uMMC\uMMC\LTSPICE\H-BRIDGE-ONLY\H-Bridge-only.net
C:\Users\Utente\AppData\Local\LTspice\lib\cmp\standard.mos

