LTspice 24.1.9 for Windows
Circuit: C:\Users\Utente\Desktop\LV-MMC-controller\LV-MMC-controller\LTSPICE\F-BRIDGE-4-SM_lower_arm\H-Bridge-4-SM.net
Start Time: Wed May 27 20:44:24 2026
solver = Normal
Maximum thread count: 12
tnom = 27
temp = 27
method = modified trap
WARNING: Node n004 is floating.

Model "n": Oxide thickness thinner than recommended for a level 1 MOSFET.
Model "p": Oxide thickness thinner than recommended for a level 1 MOSFET.
Direct Newton iteration for .op point succeeded.
Warning: Simulation tolerance relaxed to achieve convergence from 9.0071669831392887e-01 to 9.0071669831392998e-01 seconds.
Warning: Simulation tolerance relaxed to achieve convergence from 9.0071669831392998e-01 to 9.0071669831393109e-01 seconds.
Warning: Simulation tolerance relaxed to achieve convergence from 9.0071669831393109e-01 to 9.0071669831393220e-01 seconds.
Warning: Simulation tolerance relaxed to achieve convergence from 9.0071669831393220e-01 to 9.0071669831393331e-01 seconds.
Warning: Simulation tolerance relaxed to achieve convergence from 9.0071669831393331e-01 to 9.0071669831393442e-01 seconds.
Warning: Simulation tolerance relaxed to achieve convergence from 9.0071669831393442e-01 to 9.0071669831393553e-01 seconds.
Warning: Simulation tolerance relaxed to achieve convergence from 9.0071669831393553e-01 to 9.0071669831393664e-01 seconds.
Warning: Simulation tolerance relaxed to achieve convergence from 9.0071669831393664e-01 to 9.0071669831393775e-01 seconds.
Warning: Simulation tolerance relaxed to achieve convergence from 9.0071669831393775e-01 to 9.0071669831393886e-01 seconds.
Warning: Simulation tolerance relaxed to achieve convergence from 9.0071669831393886e-01 to 9.0071669831393997e-01 seconds.
Warning: Simulation tolerance relaxed to achieve convergence from 9.0071669831393997e-01 to 9.0071669831394108e-01 seconds.
Warning: Simulation tolerance relaxed to achieve convergence from 9.0071669831394108e-01 to 9.0071669831394219e-01 seconds.
Warning: Simulation tolerance relaxed to achieve convergence from 9.0071669831394219e-01 to 9.0071669831394330e-01 seconds.
Warning: Simulation tolerance relaxed to achieve convergence from 9.0071669831394330e-01 to 9.0071669831394441e-01 seconds.
Warning: Simulation tolerance relaxed to achieve convergence from 9.0071669831394441e-01 to 9.0071669831394552e-01 seconds.
Warning: Simulation tolerance relaxed to achieve convergence from 9.0071669831394552e-01 to 9.0071669831394663e-01 seconds.
Warning: Simulation tolerance relaxed to achieve convergence from 9.0071669831394663e-01 to 9.0071669831394774e-01 seconds.
Warning: Simulation tolerance relaxed to achieve convergence from 9.0071669831394774e-01 to 9.0071669831394885e-01 seconds.
Warning: Simulation tolerance relaxed to achieve convergence from 9.0071669831394885e-01 to 9.0071669831394996e-01 seconds.
Warning: Simulation tolerance relaxed to achieve convergence from 9.0071669831394996e-01 to 9.0071669831395107e-01 seconds.
Warning: Simulation tolerance relaxed to achieve convergence from 9.0071669831395107e-01 to 9.0071669831395218e-01 seconds.
Warning: Simulation tolerance relaxed to achieve convergence from 9.0071669831395218e-01 to 9.0071669831395329e-01 seconds.
Warning: Simulation tolerance relaxed to achieve convergence from 9.0071669831395329e-01 to 9.0071669831395440e-01 seconds.
Warning: Simulation tolerance relaxed to achieve convergence from 9.0071669831395440e-01 to 9.0071669831395551e-01 seconds.
Warning: Simulation tolerance relaxed to achieve convergence from 9.0071669831395551e-01 to 9.0071669831395662e-01 seconds.
Warning: Simulation tolerance relaxed to achieve convergence from 9.0071669831395662e-01 to 9.0071669831395773e-01 seconds.
Warning: Simulation tolerance relaxed to achieve convergence from 9.0071669831395773e-01 to 9.0071669831395884e-01 seconds.
Warning: Simulation tolerance relaxed to achieve convergence from 9.0071669831395884e-01 to 9.0071669831395995e-01 seconds.
Warning: Simulation tolerance relaxed to achieve convergence from 9.0071669831395995e-01 to 9.0071669831396106e-01 seconds.
Warning: Simulation tolerance relaxed to achieve convergence from 9.0071669831396106e-01 to 9.0071669831396217e-01 seconds.
Warning: Simulation tolerance relaxed to achieve convergence from 9.0071669831396217e-01 to 9.0071669831396328e-01 seconds.
Warning: Simulation tolerance relaxed to achieve convergence from 9.0071669831396328e-01 to 9.0071669831396439e-01 seconds.
Warning: Simulation tolerance relaxed to achieve convergence from 9.0071669831396439e-01 to 9.0071669831396550e-01 seconds.
Warning: Simulation tolerance relaxed to achieve convergence from 9.0071669831396550e-01 to 9.0071669831396661e-01 seconds.
Warning: Simulation tolerance relaxed to achieve convergence from 9.0071669831396661e-01 to 9.0071669831396772e-01 seconds.
Warning: Simulation tolerance relaxed to achieve convergence from 9.0071669831396772e-01 to 9.0071669831396883e-01 seconds.
Warning: Simulation tolerance relaxed to achieve convergence from 9.0071669831396883e-01 to 9.0071669831396994e-01 seconds.
Warning: Simulation tolerance relaxed to achieve convergence from 9.0071669831396994e-01 to 9.0071669831397105e-01 seconds.
Warning: Simulation tolerance relaxed to achieve convergence from 9.0071669831397105e-01 to 9.0071669831397216e-01 seconds.
Warning: Simulation tolerance relaxed to achieve convergence from 9.0071669831397216e-01 to 9.0071669831397327e-01 seconds.
Warning: Simulation tolerance relaxed to achieve convergence from 9.0071669831397327e-01 to 9.0071669831397438e-01 seconds.
Warning: Simulation tolerance relaxed to achieve convergence from 9.0071669831397438e-01 to 9.0071669831397549e-01 seconds.
Warning: Simulation tolerance relaxed to achieve convergence from 9.0071669831397549e-01 to 9.0071669831397660e-01 seconds.
Warning: Simulation tolerance relaxed to achieve convergence from 9.0071669831397660e-01 to 9.0071669831397771e-01 seconds.
Warning: Simulation tolerance relaxed to achieve convergence from 9.0071669831397771e-01 to 9.0071669831397883e-01 seconds.
Warning: Simulation tolerance relaxed to achieve convergence from 9.0071669831397883e-01 to 9.0071669831397994e-01 seconds.
Warning: Simulation tolerance relaxed to achieve convergence from 9.0071669831397994e-01 to 9.0071669831398105e-01 seconds.
Warning: Simulation tolerance relaxed to achieve convergence from 9.0071669831398105e-01 to 9.0071669831398216e-01 seconds.
Warning: Simulation tolerance relaxed to achieve convergence from 9.0071669831398216e-01 to 9.0071669831398327e-01 seconds.
Warning: Simulation tolerance relaxed to achieve convergence from 9.0071669831398327e-01 to 9.0071669831398438e-01 seconds.
Warning: Simulation tolerance relaxed to achieve convergence from 9.0071669831398438e-01 to 9.0071669831398549e-01 seconds.
Warning: Simulation tolerance relaxed to achieve convergence from 9.0071669831398549e-01 to 9.0071669831398660e-01 seconds.
Warning: Simulation tolerance relaxed to achieve convergence from 9.0071669831398660e-01 to 9.0071669831398771e-01 seconds.
Warning: Simulation tolerance relaxed to achieve convergence from 9.0071669831398771e-01 to 9.0071669831398882e-01 seconds.
Warning: Simulation tolerance relaxed to achieve convergence from 9.0071669831398882e-01 to 9.0071669831398993e-01 seconds.
Warning: Simulation tolerance relaxed to achieve convergence from 9.0071669831398993e-01 to 9.0071669831399104e-01 seconds.
Warning: Simulation tolerance relaxed to achieve convergence from 9.0071669831399104e-01 to 9.0071669831399215e-01 seconds.
Warning: Simulation tolerance relaxed to achieve convergence from 9.0071669831399215e-01 to 9.0071669831399326e-01 seconds.
Warning: Simulation tolerance relaxed to achieve convergence from 9.0071669831399326e-01 to 9.0071669831399437e-01 seconds.
Warning: Simulation tolerance relaxed to achieve convergence from 9.0071669831399437e-01 to 9.0071669831399548e-01 seconds.
Warning: Simulation tolerance relaxed to achieve convergence from 9.0071669831399548e-01 to 9.0071669831399659e-01 seconds.
Warning: Simulation tolerance relaxed to achieve convergence from 9.0071669831399659e-01 to 9.0071669831399770e-01 seconds.
Warning: Simulation tolerance relaxed to achieve convergence from 9.0071669831399770e-01 to 9.0071669831399881e-01 seconds.
Warning: Simulation tolerance relaxed to achieve convergence from 9.0071669831399881e-01 to 9.0071669831399992e-01 seconds.
Warning: Simulation tolerance relaxed to achieve convergence from 9.0071669831399992e-01 to 9.0071669831400103e-01 seconds.
Warning: Simulation tolerance relaxed to achieve convergence from 9.0071669831400103e-01 to 9.0071669831400214e-01 seconds.
Warning: Simulation tolerance relaxed to achieve convergence from 9.0071669831400214e-01 to 9.0071669831400325e-01 seconds.
Warning: Simulation tolerance relaxed to achieve convergence from 9.0071669831400325e-01 to 9.0071669831400436e-01 seconds.
Warning: Simulation tolerance relaxed to achieve convergence from 9.0071669831400436e-01 to 9.0071669831400547e-01 seconds.
Warning: Simulation tolerance relaxed to achieve convergence from 9.0071669831400547e-01 to 9.0071669831400658e-01 seconds.
Warning: Simulation tolerance relaxed to achieve convergence from 9.0071669831400658e-01 to 9.0071669831400769e-01 seconds.
Warning: Simulation tolerance relaxed to achieve convergence from 9.0071669831400769e-01 to 9.0071669831400880e-01 seconds.
Warning: Simulation tolerance relaxed to achieve convergence from 9.0071669831400880e-01 to 9.0071669831400991e-01 seconds.
Warning: Simulation tolerance relaxed to achieve convergence from 9.0071669831400991e-01 to 9.0071669831401102e-01 seconds.
Warning: Simulation tolerance relaxed to achieve convergence from 9.0071669831401102e-01 to 9.0071669831401213e-01 seconds.
Warning: Simulation tolerance relaxed to achieve convergence from 9.0071669831401213e-01 to 9.0071669831401324e-01 seconds.
Warning: Simulation tolerance relaxed to achieve convergence from 9.0071669831401324e-01 to 9.0071669831401435e-01 seconds.
Warning: Simulation tolerance relaxed to achieve convergence from 9.0071669831401435e-01 to 9.0071669831401546e-01 seconds.
Warning: Simulation tolerance relaxed to achieve convergence from 9.0071669831401546e-01 to 9.0071669831401657e-01 seconds.
Warning: Simulation tolerance relaxed to achieve convergence from 9.0071669831401657e-01 to 9.0071669831401768e-01 seconds.
Warning: Simulation tolerance relaxed to achieve convergence from 9.0071669831401768e-01 to 9.0071669831401879e-01 seconds.
Warning: Simulation tolerance relaxed to achieve convergence from 9.0071669831401879e-01 to 9.0071669831401990e-01 seconds.
Warning: Simulation tolerance relaxed to achieve convergence from 9.0071669831401990e-01 to 9.0071669831402101e-01 seconds.
Warning: Simulation tolerance relaxed to achieve convergence from 9.0071669831402101e-01 to 9.0071669831402212e-01 seconds.
Warning: Simulation tolerance relaxed to achieve convergence from 9.0071669831402212e-01 to 9.0071669831402323e-01 seconds.
Warning: Simulation tolerance relaxed to achieve convergence from 9.0071669831402323e-01 to 9.0071669831402434e-01 seconds.
Warning: Simulation tolerance relaxed to achieve convergence from 9.0071669831402434e-01 to 9.0071669831402545e-01 seconds.
Warning: Simulation tolerance relaxed to achieve convergence from 9.0071669831402545e-01 to 9.0071669831402656e-01 seconds.
Warning: Simulation tolerance relaxed to achieve convergence from 9.0071669831402656e-01 to 9.0071669831402768e-01 seconds.
Warning: Simulation tolerance relaxed to achieve convergence from 9.0071669831402768e-01 to 9.0071669831402879e-01 seconds.
Warning: Simulation tolerance relaxed to achieve convergence from 9.0071669831402879e-01 to 9.0071669831402990e-01 seconds.
Warning: Simulation tolerance relaxed to achieve convergence from 9.0071669831402990e-01 to 9.0071669831403101e-01 seconds.
Warning: Simulation tolerance relaxed to achieve convergence from 9.0071669831403101e-01 to 9.0071669831403212e-01 seconds.
Warning: Simulation tolerance relaxed to achieve convergence from 9.0071669831403212e-01 to 9.0071669831403323e-01 seconds.
Warning: Simulation tolerance relaxed to achieve convergence from 9.0071669831403323e-01 to 9.0071669831403434e-01 seconds.
Warning: Simulation tolerance relaxed to achieve convergence from 9.0071669831403434e-01 to 9.0071669831403545e-01 seconds.
Warning: Simulation tolerance relaxed to achieve convergence from 9.0071669831403545e-01 to 9.0071669831403656e-01 seconds.
Warning: Simulation tolerance relaxed to achieve convergence from 9.0071669831403656e-01 to 9.0071669831403767e-01 seconds.
Warning: Simulation tolerance relaxed to achieve convergence from 9.0071669831403767e-01 to 9.0071669831403878e-01 seconds.
Warning: Simulation tolerance relaxed to achieve convergence from 9.0071669831403878e-01 to 9.0071669831403989e-01 seconds.
Warning: Simulation tolerance relaxed to achieve convergence from 9.0071669831403989e-01 to 9.0071669831404100e-01 seconds.
Warning: Simulation tolerance relaxed to achieve convergence from 9.0071669831404100e-01 to 9.0071669831404211e-01 seconds.
Warning: Simulation tolerance relaxed to achieve convergence from 9.0071669831404211e-01 to 9.0071669831404322e-01 seconds.
Warning: Simulation tolerance relaxed to achieve convergence from 9.0071669831404322e-01 to 9.0071669831404433e-01 seconds.
Warning: Simulation tolerance relaxed to achieve convergence from 9.0071669831404433e-01 to 9.0071669831404544e-01 seconds.
Warning: Simulation tolerance relaxed to achieve convergence from 9.0071669831404544e-01 to 9.0071669831404655e-01 seconds.
Warning: Simulation tolerance relaxed to achieve convergence from 9.0071669831404655e-01 to 9.0071669831404766e-01 seconds.
Warning: Simulation tolerance relaxed to achieve convergence from 9.0071669831404766e-01 to 9.0071669831404877e-01 seconds.
Warning: Simulation tolerance relaxed to achieve convergence from 9.0071669831404877e-01 to 9.0071669831404988e-01 seconds.
Warning: Simulation tolerance relaxed to achieve convergence from 9.0071669831404988e-01 to 9.0071669831405099e-01 seconds.
Warning: Simulation tolerance relaxed to achieve convergence from 9.0071669831405099e-01 to 9.0071669831405210e-01 seconds.
Warning: Simulation tolerance relaxed to achieve convergence from 9.0071669831405210e-01 to 9.0071669831405321e-01 seconds.
Warning: Simulation tolerance relaxed to achieve convergence from 9.0071669831405321e-01 to 9.0071669831405432e-01 seconds.
Warning: Simulation tolerance relaxed to achieve convergence from 9.0071669831405432e-01 to 9.0071669831405543e-01 seconds.
Warning: Simulation tolerance relaxed to achieve convergence from 9.0071669831405543e-01 to 9.0071669831405654e-01 seconds.
Warning: Simulation tolerance relaxed to achieve convergence from 9.0071669831405654e-01 to 9.0071669831405765e-01 seconds.
Warning: Simulation tolerance relaxed to achieve convergence from 9.0071669831405765e-01 to 9.0071669831405876e-01 seconds.
Warning: Simulation tolerance relaxed to achieve convergence from 9.0071669831405876e-01 to 9.0071669831405987e-01 seconds.
Warning: Simulation tolerance relaxed to achieve convergence from 9.0071669831405987e-01 to 9.0071669831406098e-01 seconds.
Warning: Simulation tolerance relaxed to achieve convergence from 9.0071669831406098e-01 to 9.0071669831406209e-01 seconds.
Warning: Simulation tolerance relaxed to achieve convergence from 9.0071669831406209e-01 to 9.0071669831406320e-01 seconds.
Warning: Simulation tolerance relaxed to achieve convergence from 9.0071669831406320e-01 to 9.0071669831406431e-01 seconds.
Warning: Simulation tolerance relaxed to achieve convergence from 9.0071669831406431e-01 to 9.0071669831406542e-01 seconds.
Warning: Simulation tolerance relaxed to achieve convergence from 9.0071669831406542e-01 to 9.0071669831406653e-01 seconds.
Warning: Simulation tolerance relaxed to achieve convergence from 9.0071669831406653e-01 to 9.0071669831406764e-01 seconds.
Warning: Simulation tolerance relaxed to achieve convergence from 9.0071669831406764e-01 to 9.0071669831406875e-01 seconds.
Warning: Simulation tolerance relaxed to achieve convergence from 9.0071669831406875e-01 to 9.0071669831406986e-01 seconds.
Warning: Simulation tolerance relaxed to achieve convergence from 9.0071669831406986e-01 to 9.0071669831407097e-01 seconds.
Warning: Simulation tolerance relaxed to achieve convergence from 9.0071669831407097e-01 to 9.0071669831407208e-01 seconds.
Warning: Simulation tolerance relaxed to achieve convergence from 9.0071669831407208e-01 to 9.0071669831407319e-01 seconds.
Warning: Simulation tolerance relaxed to achieve convergence from 9.0071669831407319e-01 to 9.0071669831407430e-01 seconds.
Warning: Simulation tolerance relaxed to achieve convergence from 9.0071669831407430e-01 to 9.0071669831407541e-01 seconds.
Warning: Simulation tolerance relaxed to achieve convergence from 9.0071669831407541e-01 to 9.0071669831407652e-01 seconds.
Warning: Simulation tolerance relaxed to achieve convergence from 9.0071669831407652e-01 to 9.0071669831407764e-01 seconds.
Warning: Simulation tolerance relaxed to achieve convergence from 9.0071669831407764e-01 to 9.0071669831407875e-01 seconds.
Warning: Simulation tolerance relaxed to achieve convergence from 9.0071669831407875e-01 to 9.0071669831407986e-01 seconds.
Warning: Simulation tolerance relaxed to achieve convergence from 9.0071669831407986e-01 to 9.0071669831408097e-01 seconds.
Warning: Simulation tolerance relaxed to achieve convergence from 9.0071669831408097e-01 to 9.0071669831408208e-01 seconds.
Warning: Simulation tolerance relaxed to achieve convergence from 9.0071669831408208e-01 to 9.0071669831408319e-01 seconds.
Warning: Simulation tolerance relaxed to achieve convergence from 9.0071669831408319e-01 to 9.0071669831408430e-01 seconds.
Warning: Simulation tolerance relaxed to achieve convergence from 9.0071669831408430e-01 to 9.0071669831408541e-01 seconds.
Warning: Simulation tolerance relaxed to achieve convergence from 9.0071669831408541e-01 to 9.0071669831408652e-01 seconds.
Warning: Simulation tolerance relaxed to achieve convergence from 9.0071669831408652e-01 to 9.0071669831408763e-01 seconds.
Warning: Simulation tolerance relaxed to achieve convergence from 9.0071669831408763e-01 to 9.0071669831408874e-01 seconds.
Warning: Simulation tolerance relaxed to achieve convergence from 9.0071669831408874e-01 to 9.0071669831408985e-01 seconds.
Warning: Simulation tolerance relaxed to achieve convergence from 9.0071669831408985e-01 to 9.0071669831409096e-01 seconds.
Warning: Simulation tolerance relaxed to achieve convergence from 9.0071669831409096e-01 to 9.0071669831409207e-01 seconds.
Warning: Simulation tolerance relaxed to achieve convergence from 9.0071669831409207e-01 to 9.0071669831409318e-01 seconds.
Warning: Simulation tolerance relaxed to achieve convergence from 9.0071669831409318e-01 to 9.0071669831409429e-01 seconds.
Warning: Simulation tolerance relaxed to achieve convergence from 9.0071669831409429e-01 to 9.0071669831409540e-01 seconds.
Warning: Simulation tolerance relaxed to achieve convergence from 9.0071669831409540e-01 to 9.0071669831409651e-01 seconds.
Warning: Simulation tolerance relaxed to achieve convergence from 9.0071669831409651e-01 to 9.0071669831409762e-01 seconds.
Warning: Simulation tolerance relaxed to achieve convergence from 9.0071669831409762e-01 to 9.0071669831409873e-01 seconds.
Warning: Simulation tolerance relaxed to achieve convergence from 9.0071669831409873e-01 to 9.0071669831409984e-01 seconds.
Warning: Simulation tolerance relaxed to achieve convergence from 9.0071669831409984e-01 to 9.0071669831410095e-01 seconds.
Warning: Simulation tolerance relaxed to achieve convergence from 9.0071669831410095e-01 to 9.0071669831410206e-01 seconds.
Warning: Simulation tolerance relaxed to achieve convergence from 9.0071669831410206e-01 to 9.0071669831410317e-01 seconds.
Warning: Simulation tolerance relaxed to achieve convergence from 9.0071669831410317e-01 to 9.0071669831410428e-01 seconds.
Warning: Simulation tolerance relaxed to achieve convergence from 9.0071669831410428e-01 to 9.0071669831410539e-01 seconds.
Warning: Simulation tolerance relaxed to achieve convergence from 9.0071669831410539e-01 to 9.0071669831410650e-01 seconds.
Warning: Simulation tolerance relaxed to achieve convergence from 9.0071669831410650e-01 to 9.0071669831410761e-01 seconds.
Warning: Simulation tolerance relaxed to achieve convergence from 9.0071669831410761e-01 to 9.0071669831410872e-01 seconds.
Warning: Simulation tolerance relaxed to achieve convergence from 9.0071669831410872e-01 to 9.0071669831410983e-01 seconds.
Warning: Simulation tolerance relaxed to achieve convergence from 9.0071669831410983e-01 to 9.0071669831411094e-01 seconds.
Warning: Simulation tolerance relaxed to achieve convergence from 9.0071669831411094e-01 to 9.0071669831411205e-01 seconds.
Warning: Simulation tolerance relaxed to achieve convergence from 9.0071669831411205e-01 to 9.0071669831411316e-01 seconds.
Warning: Simulation tolerance relaxed to achieve convergence from 9.0071669831411316e-01 to 9.0071669831411427e-01 seconds.
Warning: Simulation tolerance relaxed to achieve convergence from 9.0071669831411427e-01 to 9.0071669831411538e-01 seconds.
Warning: Simulation tolerance relaxed to achieve convergence from 9.0071669831411538e-01 to 9.0071669831411649e-01 seconds.
Warning: Simulation tolerance relaxed to achieve convergence from 9.0071669831411649e-01 to 9.0071669831411760e-01 seconds.
Warning: Simulation tolerance relaxed to achieve convergence from 9.0071669831411760e-01 to 9.0071669831411871e-01 seconds.
Warning: Simulation tolerance relaxed to achieve convergence from 9.0071669831411871e-01 to 9.0071669831411982e-01 seconds.
Warning: Simulation tolerance relaxed to achieve convergence from 9.0071669831411982e-01 to 9.0071669831412093e-01 seconds.
Warning: Simulation tolerance relaxed to achieve convergence from 9.0071669831412093e-01 to 9.0071669831412204e-01 seconds.
Warning: Simulation tolerance relaxed to achieve convergence from 9.0071669831412204e-01 to 9.0071669831412315e-01 seconds.
Warning: Simulation tolerance relaxed to achieve convergence from 9.0071669831412315e-01 to 9.0071669831412426e-01 seconds.
Warning: Simulation tolerance relaxed to achieve convergence from 9.0071669831412426e-01 to 9.0071669831412537e-01 seconds.
Warning: Simulation tolerance relaxed to achieve convergence from 9.0071669831412537e-01 to 9.0071669831412648e-01 seconds.
Warning: Simulation tolerance relaxed to achieve convergence from 9.0071669831412648e-01 to 9.0071669831412760e-01 seconds.
Warning: Simulation tolerance relaxed to achieve convergence from 9.0071669831412760e-01 to 9.0071669831412871e-01 seconds.
Warning: Simulation tolerance relaxed to achieve convergence from 9.0071669831412871e-01 to 9.0071669831412982e-01 seconds.
Warning: Simulation tolerance relaxed to achieve convergence from 9.0071669831412982e-01 to 9.0071669831413093e-01 seconds.
Warning: Simulation tolerance relaxed to achieve convergence from 9.0071669831413093e-01 to 9.0071669831413204e-01 seconds.
Warning: Simulation tolerance relaxed to achieve convergence from 9.0071669831413204e-01 to 9.0071669831413315e-01 seconds.
Warning: Simulation tolerance relaxed to achieve convergence from 9.0071669831413315e-01 to 9.0071669831413426e-01 seconds.
Warning: Simulation tolerance relaxed to achieve convergence from 9.0071669831413426e-01 to 9.0071669831413537e-01 seconds.
Warning: Simulation tolerance relaxed to achieve convergence from 9.0071669831413537e-01 to 9.0071669831413648e-01 seconds.
Warning: Simulation tolerance relaxed to achieve convergence from 9.0071669831413648e-01 to 9.0071669831413759e-01 seconds.
Warning: Simulation tolerance relaxed to achieve convergence from 9.0071669831413759e-01 to 9.0071669831413870e-01 seconds.
Warning: Simulation tolerance relaxed to achieve convergence from 9.0071669831413870e-01 to 9.0071669831413981e-01 seconds.
Warning: Simulation tolerance relaxed to achieve convergence from 9.0071669831413981e-01 to 9.0071669831414092e-01 seconds.
Warning: Simulation tolerance relaxed to achieve convergence from 9.0071669831414092e-01 to 9.0071669831414203e-01 seconds.
Warning: Simulation tolerance relaxed to achieve convergence from 9.0071669831414203e-01 to 9.0071669831414314e-01 seconds.
Warning: Simulation tolerance relaxed to achieve convergence from 9.0071669831414314e-01 to 9.0071669831414425e-01 seconds.
Warning: Simulation tolerance relaxed to achieve convergence from 9.0071669831414425e-01 to 9.0071669831414536e-01 seconds.
Warning: Simulation tolerance relaxed to achieve convergence from 9.0071669831414536e-01 to 9.0071669831414647e-01 seconds.
Warning: Simulation tolerance relaxed to achieve convergence from 9.0071669831414647e-01 to 9.0071669831414758e-01 seconds.
Warning: Simulation tolerance relaxed to achieve convergence from 9.0071669831414758e-01 to 9.0071669831414869e-01 seconds.
Warning: Simulation tolerance relaxed to achieve convergence from 9.0071669831414869e-01 to 9.0071669831414980e-01 seconds.
Warning: Simulation tolerance relaxed to achieve convergence from 9.0071669831414980e-01 to 9.0071669831415091e-01 seconds.
Warning: Simulation tolerance relaxed to achieve convergence from 9.0071669831415091e-01 to 9.0071669831415202e-01 seconds.
Warning: Simulation tolerance relaxed to achieve convergence from 9.0071669831415202e-01 to 9.0071669831415313e-01 seconds.
Warning: Simulation tolerance relaxed to achieve convergence from 9.0071669831415313e-01 to 9.0071669831415424e-01 seconds.
Warning: Simulation tolerance relaxed to achieve convergence from 9.0071669831415424e-01 to 9.0071669831415535e-01 seconds.
Warning: Simulation tolerance relaxed to achieve convergence from 9.0071669831415535e-01 to 9.0071669831415646e-01 seconds.
Warning: Simulation tolerance relaxed to achieve convergence from 9.0071669831415646e-01 to 9.0071669831415757e-01 seconds.
Warning: Simulation tolerance relaxed to achieve convergence from 9.0071669831415757e-01 to 9.0071669831415868e-01 seconds.
Warning: Simulation tolerance relaxed to achieve convergence from 9.0071669831415868e-01 to 9.0071669831415979e-01 seconds.
Warning: Simulation tolerance relaxed to achieve convergence from 9.0071669831415979e-01 to 9.0071669831416090e-01 seconds.
Warning: Simulation tolerance relaxed to achieve convergence from 9.0071669831416090e-01 to 9.0071669831416201e-01 seconds.
Warning: Simulation tolerance relaxed to achieve convergence from 9.0071669831416201e-01 to 9.0071669831416312e-01 seconds.
Warning: Simulation tolerance relaxed to achieve convergence from 9.0071669831416312e-01 to 9.0071669831416423e-01 seconds.
Warning: Simulation tolerance relaxed to achieve convergence from 9.0071669831416423e-01 to 9.0071669831416534e-01 seconds.
Warning: Simulation tolerance relaxed to achieve convergence from 9.0071669831416534e-01 to 9.0071669831416645e-01 seconds.
Warning: Simulation tolerance relaxed to achieve convergence from 9.0071669831416645e-01 to 9.0071669831416756e-01 seconds.
Warning: Simulation tolerance relaxed to achieve convergence from 9.0071669831416756e-01 to 9.0071669831416867e-01 seconds.
Warning: Simulation tolerance relaxed to achieve convergence from 9.0071669831416867e-01 to 9.0071669831416978e-01 seconds.
Warning: Simulation tolerance relaxed to achieve convergence from 9.0071669831416978e-01 to 9.0071669831417089e-01 seconds.
Warning: Simulation tolerance relaxed to achieve convergence from 9.0071669831417089e-01 to 9.0071669831417200e-01 seconds.
Warning: Simulation tolerance relaxed to achieve convergence from 9.0071669831417200e-01 to 9.0071669831417311e-01 seconds.
Warning: Simulation tolerance relaxed to achieve convergence from 9.0071669831417311e-01 to 9.0071669831417422e-01 seconds.
Warning: Simulation tolerance relaxed to achieve convergence from 9.0071669831417422e-01 to 9.0071669831417533e-01 seconds.
Warning: Simulation tolerance relaxed to achieve convergence from 9.0071669831417533e-01 to 9.0071669831417644e-01 seconds.
Warning: Simulation tolerance relaxed to achieve convergence from 9.0071669831417644e-01 to 9.0071669831417756e-01 seconds.
Warning: Simulation tolerance relaxed to achieve convergence from 9.0071669831417756e-01 to 9.0071669831417867e-01 seconds.
Warning: Simulation tolerance relaxed to achieve convergence from 9.0071669831417867e-01 to 9.0071669831417978e-01 seconds.
Warning: Simulation tolerance relaxed to achieve convergence from 9.0071669831417978e-01 to 9.0071669831418089e-01 seconds.
Warning: Simulation tolerance relaxed to achieve convergence from 9.0071669831418089e-01 to 9.0071669831418200e-01 seconds.
Warning: Simulation tolerance relaxed to achieve convergence from 9.0071669831418200e-01 to 9.0071669831418311e-01 seconds.
Warning: Simulation tolerance relaxed to achieve convergence from 9.0071669831418311e-01 to 9.0071669831418422e-01 seconds.
Warning: Simulation tolerance relaxed to achieve convergence from 9.0071669831418422e-01 to 9.0071669831418533e-01 seconds.
Warning: Simulation tolerance relaxed to achieve convergence from 9.0071669831418533e-01 to 9.0071669831418644e-01 seconds.
Warning: Simulation tolerance relaxed to achieve convergence from 9.0071669831418644e-01 to 9.0071669831418755e-01 seconds.
Warning: Simulation tolerance relaxed to achieve convergence from 9.0071669831418755e-01 to 9.0071669831418866e-01 seconds.
Warning: Simulation tolerance relaxed to achieve convergence from 9.0071669831418866e-01 to 9.0071669831418977e-01 seconds.
Warning: Simulation tolerance relaxed to achieve convergence from 9.0071669831418977e-01 to 9.0071669831419088e-01 seconds.
Warning: Simulation tolerance relaxed to achieve convergence from 9.0071669831419088e-01 to 9.0071669831419199e-01 seconds.
Warning: Simulation tolerance relaxed to achieve convergence from 9.0071669831419199e-01 to 9.0071669831419310e-01 seconds.
Warning: Simulation tolerance relaxed to achieve convergence from 9.0071669831419310e-01 to 9.0071669831419421e-01 seconds.
Warning: Simulation tolerance relaxed to achieve convergence from 9.0071669831419421e-01 to 9.0071669831419532e-01 seconds.
Warning: Simulation tolerance relaxed to achieve convergence from 9.0071669831419532e-01 to 9.0071669831419643e-01 seconds.
Warning: Simulation tolerance relaxed to achieve convergence from 9.0071669831419643e-01 to 9.0071669831419754e-01 seconds.
Warning: Simulation tolerance relaxed to achieve convergence from 9.0071669831419754e-01 to 9.0071669831419865e-01 seconds.
Warning: Simulation tolerance relaxed to achieve convergence from 9.0071669831419865e-01 to 9.0071669831419976e-01 seconds.
Warning: Simulation tolerance relaxed to achieve convergence from 9.0071669831419976e-01 to 9.0071669831420087e-01 seconds.
Warning: Simulation tolerance relaxed to achieve convergence from 9.0071669831420087e-01 to 9.0071669831420198e-01 seconds.
Warning: Simulation tolerance relaxed to achieve convergence from 9.0071669831420198e-01 to 9.0071669831420309e-01 seconds.
Warning: Simulation tolerance relaxed to achieve convergence from 9.0071669831420309e-01 to 9.0071669831420420e-01 seconds.
Warning: Simulation tolerance relaxed to achieve convergence from 9.0071669831420420e-01 to 9.0071669831420531e-01 seconds.
Warning: Simulation tolerance relaxed to achieve convergence from 9.0071669831420531e-01 to 9.0071669831420642e-01 seconds.
Warning: Simulation tolerance relaxed to achieve convergence from 9.0071669831420642e-01 to 9.0071669831420753e-01 seconds.
Warning: Simulation tolerance relaxed to achieve convergence from 9.0071669831420753e-01 to 9.0071669831420864e-01 seconds.
Warning: Simulation tolerance relaxed to achieve convergence from 9.0071669831420864e-01 to 9.0071669831420975e-01 seconds.
Warning: Simulation tolerance relaxed to achieve convergence from 9.0071669831420975e-01 to 9.0071669831421086e-01 seconds.
Warning: Simulation tolerance relaxed to achieve convergence from 9.0071669831421086e-01 to 9.0071669831421197e-01 seconds.
Warning: Simulation tolerance relaxed to achieve convergence from 9.0071669831421197e-01 to 9.0071669831421308e-01 seconds.
Warning: Simulation tolerance relaxed to achieve convergence from 9.0071669831421308e-01 to 9.0071669831421419e-01 seconds.
Warning: Simulation tolerance relaxed to achieve convergence from 9.0071669831421419e-01 to 9.0071669831421530e-01 seconds.
Warning: Simulation tolerance relaxed to achieve convergence from 9.0071669831421530e-01 to 9.0071669831421641e-01 seconds.
Warning: Simulation tolerance relaxed to achieve convergence from 9.0071669831421641e-01 to 9.0071669831421752e-01 seconds.
Warning: Simulation tolerance relaxed to achieve convergence from 9.0071669831421752e-01 to 9.0071669831421863e-01 seconds.
Warning: Simulation tolerance relaxed to achieve convergence from 9.0071669831421863e-01 to 9.0071669831421974e-01 seconds.
Warning: Simulation tolerance relaxed to achieve convergence from 9.0071669831421974e-01 to 9.0071669831422085e-01 seconds.
Warning: Simulation tolerance relaxed to achieve convergence from 9.0071669831422085e-01 to 9.0071669831422196e-01 seconds.
Warning: Simulation tolerance relaxed to achieve convergence from 9.0071669831422196e-01 to 9.0071669831422307e-01 seconds.
Warning: Simulation tolerance relaxed to achieve convergence from 9.0071669831422307e-01 to 9.0071669831422418e-01 seconds.
Warning: Simulation tolerance relaxed to achieve convergence from 9.0071669831422418e-01 to 9.0071669831422529e-01 seconds.
Warning: Simulation tolerance relaxed to achieve convergence from 9.0071669831422529e-01 to 9.0071669831422640e-01 seconds.
Warning: Simulation tolerance relaxed to achieve convergence from 9.0071669831422640e-01 to 9.0071669831422752e-01 seconds.
Warning: Simulation tolerance relaxed to achieve convergence from 9.0071669831422752e-01 to 9.0071669831422863e-01 seconds.
Warning: Simulation tolerance relaxed to achieve convergence from 9.0071669831422863e-01 to 9.0071669831422974e-01 seconds.
Warning: Simulation tolerance relaxed to achieve convergence from 9.0071669831422974e-01 to 9.0071669831423085e-01 seconds.
Warning: Simulation tolerance relaxed to achieve convergence from 9.0071669831423085e-01 to 9.0071669831423196e-01 seconds.
Warning: Simulation tolerance relaxed to achieve convergence from 9.0071669831423196e-01 to 9.0071669831423307e-01 seconds.
Warning: Simulation tolerance relaxed to achieve convergence from 9.0071669831423307e-01 to 9.0071669831423418e-01 seconds.
Warning: Simulation tolerance relaxed to achieve convergence from 9.0071669831423418e-01 to 9.0071669831423529e-01 seconds.
Warning: Simulation tolerance relaxed to achieve convergence from 9.0071669831423529e-01 to 9.0071669831423640e-01 seconds.
Warning: Simulation tolerance relaxed to achieve convergence from 9.0071669831423640e-01 to 9.0071669831423751e-01 seconds.
Warning: Simulation tolerance relaxed to achieve convergence from 9.0071669831423751e-01 to 9.0071669831423862e-01 seconds.
Warning: Simulation tolerance relaxed to achieve convergence from 9.0071669831423862e-01 to 9.0071669831423973e-01 seconds.
Warning: Simulation tolerance relaxed to achieve convergence from 9.0071669831423973e-01 to 9.0071669831424084e-01 seconds.
Warning: Simulation tolerance relaxed to achieve convergence from 9.0071669831424084e-01 to 9.0071669831424195e-01 seconds.
Warning: Simulation tolerance relaxed to achieve convergence from 9.0071669831424195e-01 to 9.0071669831424306e-01 seconds.
Warning: Simulation tolerance relaxed to achieve convergence from 9.0071669831424306e-01 to 9.0071669831424417e-01 seconds.
Warning: Simulation tolerance relaxed to achieve convergence from 9.0071669831424417e-01 to 9.0071669831424528e-01 seconds.
Warning: Simulation tolerance relaxed to achieve convergence from 9.0071669831424528e-01 to 9.0071669831424639e-01 seconds.
Warning: Simulation tolerance relaxed to achieve convergence from 9.0071669831424639e-01 to 9.0071669831424750e-01 seconds.
Warning: Simulation tolerance relaxed to achieve convergence from 9.0071669831424750e-01 to 9.0071669831424861e-01 seconds.
Warning: Simulation tolerance relaxed to achieve convergence from 9.0071669831424861e-01 to 9.0071669831424972e-01 seconds.
Warning: Simulation tolerance relaxed to achieve convergence from 9.0071669831424972e-01 to 9.0071669831425083e-01 seconds.
Warning: Simulation tolerance relaxed to achieve convergence from 9.0071669831425083e-01 to 9.0071669831425194e-01 seconds.
Warning: Simulation tolerance relaxed to achieve convergence from 9.0071669831425194e-01 to 9.0071669831425305e-01 seconds.
Warning: Simulation tolerance relaxed to achieve convergence from 9.0071669831425305e-01 to 9.0071669831425416e-01 seconds.
Warning: Simulation tolerance relaxed to achieve convergence from 9.0071669831425416e-01 to 9.0071669831425527e-01 seconds.
Warning: Simulation tolerance relaxed to achieve convergence from 9.0071669831425527e-01 to 9.0071669831425638e-01 seconds.
Warning: Simulation tolerance relaxed to achieve convergence from 9.0071669831425638e-01 to 9.0071669831425749e-01 seconds.
Warning: Simulation tolerance relaxed to achieve convergence from 9.0071669831425749e-01 to 9.0071669831425860e-01 seconds.
Warning: Simulation tolerance relaxed to achieve convergence from 9.0071669831425860e-01 to 9.0071669831425971e-01 seconds.
Warning: Simulation tolerance relaxed to achieve convergence from 9.0071669831425971e-01 to 9.0071669831426082e-01 seconds.
Warning: Simulation tolerance relaxed to achieve convergence from 9.0071669831426082e-01 to 9.0071669831426193e-01 seconds.
Warning: Simulation tolerance relaxed to achieve convergence from 9.0071669831426193e-01 to 9.0071669831426304e-01 seconds.
Warning: Simulation tolerance relaxed to achieve convergence from 9.0071669831426304e-01 to 9.0071669831426415e-01 seconds.
Warning: Simulation tolerance relaxed to achieve convergence from 9.0071669831426415e-01 to 9.0071669831426526e-01 seconds.
Warning: Simulation tolerance relaxed to achieve convergence from 9.0071669831426526e-01 to 9.0071669831426637e-01 seconds.
Warning: Simulation tolerance relaxed to achieve convergence from 9.0071669831426637e-01 to 9.0071669831426748e-01 seconds.
Warning: Simulation tolerance relaxed to achieve convergence from 9.0071669831426748e-01 to 9.0071669831426859e-01 seconds.
Warning: Simulation tolerance relaxed to achieve convergence from 9.0071669831426859e-01 to 9.0071669831426970e-01 seconds.
Warning: Simulation tolerance relaxed to achieve convergence from 9.0071669831426970e-01 to 9.0071669831427081e-01 seconds.
Warning: Simulation tolerance relaxed to achieve convergence from 9.0071669831427081e-01 to 9.0071669831427192e-01 seconds.
Warning: Simulation tolerance relaxed to achieve convergence from 9.0071669831427192e-01 to 9.0071669831427303e-01 seconds.
Warning: Simulation tolerance relaxed to achieve convergence from 9.0071669831427303e-01 to 9.0071669831427414e-01 seconds.
Warning: Simulation tolerance relaxed to achieve convergence from 9.0071669831427414e-01 to 9.0071669831427525e-01 seconds.
Warning: Simulation tolerance relaxed to achieve convergence from 9.0071669831427525e-01 to 9.0071669831427636e-01 seconds.
Warning: Simulation tolerance relaxed to achieve convergence from 9.0071669831427636e-01 to 9.0071669831427748e-01 seconds.
Warning: Simulation tolerance relaxed to achieve convergence from 9.0071669831427748e-01 to 9.0071669831427859e-01 seconds.
Warning: Simulation tolerance relaxed to achieve convergence from 9.0071669831427859e-01 to 9.0071669831427970e-01 seconds.
Warning: Simulation tolerance relaxed to achieve convergence from 9.0071669831427970e-01 to 9.0071669831428081e-01 seconds.
Warning: Simulation tolerance relaxed to achieve convergence from 9.0071669831428081e-01 to 9.0071669831428192e-01 seconds.
Warning: Simulation tolerance relaxed to achieve convergence from 9.0071669831428192e-01 to 9.0071669831428303e-01 seconds.
Warning: Simulation tolerance relaxed to achieve convergence from 9.0071669831428303e-01 to 9.0071669831428414e-01 seconds.
Warning: Simulation tolerance relaxed to achieve convergence from 9.0071669831428414e-01 to 9.0071669831428525e-01 seconds.
Warning: Simulation tolerance relaxed to achieve convergence from 9.0071669831428525e-01 to 9.0071669831428636e-01 seconds.
Warning: Simulation tolerance relaxed to achieve convergence from 9.0071669831428636e-01 to 9.0071669831428747e-01 seconds.
Warning: Simulation tolerance relaxed to achieve convergence from 9.0071669831428747e-01 to 9.0071669831428858e-01 seconds.
Warning: Simulation tolerance relaxed to achieve convergence from 9.0071669831428858e-01 to 9.0071669831428969e-01 seconds.
Warning: Simulation tolerance relaxed to achieve convergence from 9.0071669831428969e-01 to 9.0071669831429080e-01 seconds.
Warning: Simulation tolerance relaxed to achieve convergence from 9.0071669831429080e-01 to 9.0071669831429191e-01 seconds.
Warning: Simulation tolerance relaxed to achieve convergence from 9.0071669831429191e-01 to 9.0071669831429302e-01 seconds.
Warning: Simulation tolerance relaxed to achieve convergence from 9.0071669831429302e-01 to 9.0071669831429413e-01 seconds.
Warning: Simulation tolerance relaxed to achieve convergence from 9.0071669831429413e-01 to 9.0071669831429524e-01 seconds.
Warning: Simulation tolerance relaxed to achieve convergence from 9.0071669831429524e-01 to 9.0071669831429635e-01 seconds.
Warning: Simulation tolerance relaxed to achieve convergence from 9.0071669831429635e-01 to 9.0071669831429746e-01 seconds.
Warning: Simulation tolerance relaxed to achieve convergence from 9.0071669831429746e-01 to 9.0071669831429857e-01 seconds.
Warning: Simulation tolerance relaxed to achieve convergence from 9.0071669831429857e-01 to 9.0071669831429968e-01 seconds.
Warning: Simulation tolerance relaxed to achieve convergence from 9.0071669831429968e-01 to 9.0071669831430079e-01 seconds.
Warning: Simulation tolerance relaxed to achieve convergence from 9.0071669831430079e-01 to 9.0071669831430190e-01 seconds.
Warning: Simulation tolerance relaxed to achieve convergence from 9.0071669831430190e-01 to 9.0071669831430301e-01 seconds.
Warning: Simulation tolerance relaxed to achieve convergence from 9.0071669831430301e-01 to 9.0071669831430412e-01 seconds.
Warning: Simulation tolerance relaxed to achieve convergence from 9.0071669831430412e-01 to 9.0071669831430523e-01 seconds.
Warning: Simulation tolerance relaxed to achieve convergence from 9.0071669831430523e-01 to 9.0071669831430634e-01 seconds.
Warning: Simulation tolerance relaxed to achieve convergence from 9.0071669831430634e-01 to 9.0071669831430745e-01 seconds.
Warning: Simulation tolerance relaxed to achieve convergence from 9.0071669831430745e-01 to 9.0071669831430856e-01 seconds.
Warning: Simulation tolerance relaxed to achieve convergence from 9.0071669831430856e-01 to 9.0071669831430967e-01 seconds.
Warning: Simulation tolerance relaxed to achieve convergence from 9.0071669831430967e-01 to 9.0071669831431078e-01 seconds.
Warning: Simulation tolerance relaxed to achieve convergence from 9.0071669831431078e-01 to 9.0071669831431189e-01 seconds.
Warning: Simulation tolerance relaxed to achieve convergence from 9.0071669831431189e-01 to 9.0071669831431300e-01 seconds.
Warning: Simulation tolerance relaxed to achieve convergence from 9.0071669831431300e-01 to 9.0071669831431411e-01 seconds.
Warning: Simulation tolerance relaxed to achieve convergence from 9.0071669831431411e-01 to 9.0071669831431522e-01 seconds.
Warning: Simulation tolerance relaxed to achieve convergence from 9.0071669831431522e-01 to 9.0071669831431633e-01 seconds.
Warning: Simulation tolerance relaxed to achieve convergence from 9.0071669831431633e-01 to 9.0071669831431744e-01 seconds.
Warning: Simulation tolerance relaxed to achieve convergence from 9.0071669831431744e-01 to 9.0071669831431855e-01 seconds.
Warning: Simulation tolerance relaxed to achieve convergence from 9.0071669831431855e-01 to 9.0071669831431966e-01 seconds.
Warning: Simulation tolerance relaxed to achieve convergence from 9.0071669831431966e-01 to 9.0071669831432077e-01 seconds.
Warning: Simulation tolerance relaxed to achieve convergence from 9.0071669831432077e-01 to 9.0071669831432188e-01 seconds.

Simulation stopped by user.
Total elapsed time: 4.645 seconds.

Files loaded:
C:\Users\Utente\Desktop\LV-MMC-controller\LV-MMC-controller\LTSPICE\F-BRIDGE-4-SM_lower_arm\H-Bridge-4-SM.net
C:\Users\Utente\AppData\Local\LTspice\lib\cmp\standard.mos

